!PAL8
!revPBE  SV(P) NL
!KDIIS
%geom
  MaxIter 3500
end
%scf
  SOSCFStart 0.00033 # Default value is 0.0033. Here reduced by a factor of 10.
end
* xyz 0 1
6       14.853543056     -0.336144975      8.541133914
6       13.605877168     -0.204380162      7.808007461
6       12.369393029     -0.098202363      8.531760891
6       12.366427342     -0.135612910      9.959497027
6       13.615638538     -0.271960752     10.684281226
6       14.834291996     -0.363685173      9.937454292
6       11.132219618     -0.049090592     10.679567551
6        9.892595437      0.093839648      9.963204694
6        9.894977067      0.148706353      8.533448511
6       11.131995049      0.040024929      7.814112511
6        8.661570455      0.312828096      7.817919264
6        7.426891152      0.432653561      8.538924732
6        7.420489975      0.334378945      9.970488715
6        8.655547160      0.171903045     10.682181896
6        6.200170336      0.656281261      7.829230036
6        4.965864385      0.757251158      8.571883779
6        4.948001775      0.575420211      9.989813854
6        6.183127262      0.390780009     10.693569378
6        6.226034364      0.736526123      6.388717189
6        5.021564982      1.053233676      5.677413357
6        3.891110053      1.367932090      6.491191628
6        3.750598505      1.074673710      7.881471196
6        4.962627747      0.974977586      4.212883212
6        3.723547751      1.028542045      3.431150973
6        2.450226420      1.338144300      4.000181696
14       2.452712394      1.927044413      5.653352697
6        3.712014364      0.691291881      2.036405895
6        2.451256311      0.587511995      1.340691951
6        1.190778094      0.685409200      2.037816819
6        1.178194569      1.023502177      3.432114271
6        2.451270967      0.342146355     -0.073403462
6        1.208513268      0.218146549     -0.780033048
6       -0.034467014      0.270573231     -0.070815606
6       -0.044146107      0.478922823      1.348551856
6       -1.278596358      0.486513974      2.081196476
6       -2.512751947      0.281197203      1.374581040
6       -2.508674399      0.126952957     -0.055199581
6       -1.273183317      0.120162156     -0.775922277
6       -1.280231776      0.665470923      3.513006052
6       -0.059173896      0.969869190      4.214700614
6        4.947338946      0.489476433      1.346273148
6        4.937388116      0.281692994     -0.073114794
6        3.693895413      0.224061687     -0.781180821
6       -0.116430461      1.057919535      5.678618158
6        1.012526640      1.380855338      6.490868711
6        6.184930525      0.675664450      3.509777686
6        6.182785628      0.499949156      2.077766338
6        1.155389752      1.084896978      7.880916693
6        2.453109454      1.021688481      8.563767469
6        7.443345898      0.533469340      5.665442907
6        7.426138391      0.522310187      4.229128114
6        2.453967022      0.742547769      9.975937919

6        7.426138391      0.522310187      4.229128114
6        2.453967022      0.742547769      9.975937919
6        3.697064495      0.587204321     10.693280179
6        8.667993705      0.347729111      6.384418577
6        3.694962935      0.411044833     12.118406638
6        4.934798010      0.282975807     12.831471194
6        6.177696023      0.270432077     12.119729923
6        7.416379577      0.132815076     12.830869709
6        8.652538087      0.088086413     12.112914444
6        4.933856953      0.158556188     14.261952088
6        6.174971699      0.050006693     14.975463944
6        7.413487773      0.035463310     14.261512701
6        8.654985294     -0.084632971     14.974923274
6        9.889121617     -0.123110736     14.257442793
6        9.893777322     -0.046974330     12.827820928
6       11.128520922     -0.108988898     12.108764760
6        6.173514833     -0.053274340     16.408774538
6        7.418394037     -0.155960102     17.119144146
6        8.648319488     -0.172616129     16.408628932
6        9.908328600     -0.288462072     17.123053592
6       11.107054076     -0.322919163     16.406768715
6       11.142368780     -0.250022661     14.976894226
6       12.349742079     -0.304056595     14.250068195
6       12.379137049     -0.243305818     12.830501335
6       13.592101009     -0.317062630     12.093580638
6        2.455202360      0.355200578     12.835793096
6        2.455799374      0.212400701     14.263337151
6        3.695945622      0.135112401     14.977260166
6        3.695855834      0.018116426     16.411369518
6        4.936244682     -0.063060354     17.121530640
6        9.899902616      0.202548100      5.665943392
6       11.133866134      0.061494495      6.384201372
6       12.370739849     -0.064406768      5.665255631
6       13.606327598     -0.190236613      6.387497055
6        1.211454242      0.590952546     10.694367658
6        1.214908197      0.413742458     12.119308575
6       -0.024331486      0.287572907     12.833429601
6       -0.022238956      0.163003170     14.263896727
6        1.216149846      0.137568897     14.978314829
6        1.217297227      0.020410861     16.412392984
6        2.456839588     -0.026637832     17.124050544
6       -0.058689596      0.765780664      8.572892432
6       -0.039498501      0.581436755      9.990930329
6       -1.273917846      0.396919523     10.696026093
6       -1.267534085      0.276682000     12.122345834
6       -2.505672671      0.139888724     12.834669480
6       -2.501827574      0.043352946     14.265400481
6       -1.262836176      0.056486162     14.978504791
6       -1.260388667     -0.046382263     16.411858629
6       -0.022607290     -0.058122062     17.123665557
6       -1.293384978      0.662425057      7.831733276
6       -2.519163113      0.437048635      8.542583772
6       -2.511858402      0.340325629      9.974116149
6       -3.746278670      0.177644603     10.686939356
6       -3.742367054      0.095404584     12.117743415
6       -1.319394775      0.739185999      6.391249887
6       -2.536631889      0.529065405      5.669298176
6       -3.760796303      0.343313895      6.389186700
6       -3.753920499      0.312842484      7.822690651
6       -4.986740214      0.148755710      8.539211080
6       -4.983686224      0.097251223      9.969015387
6        8.656900149      0.321581225      3.516351060
6       -4.983686224      0.097251223      9.969015387
6        8.656900149      0.321581225      3.516351060
6        9.893219801      0.191404211      4.235209358
6       11.132119623      0.038640111      3.518326506
6       12.365901730     -0.074311856      4.237460005
6       -2.520766043      0.512427291      4.233281812
6       -3.751135843      0.306186430      3.521661034
6       -4.986897827      0.176405023      4.241273619
6       -4.992763167      0.192756592      5.671885353
6       -6.226334276      0.052308302      6.391037789
6       -6.223923891      0.035689822      7.820905980
6        8.655484165      0.240243146      2.085111568
6        9.893084667      0.068763991      1.371573615
6       11.128156188     -0.010908885      2.089223745
6        7.417094234      0.298974255      1.370085408
6       -3.750400994      0.220463235      2.090570971
6        7.412400716      0.147273767     -0.059952989
6        8.652062187     -0.005984656     -0.772220192
6        9.887347885     -0.033583032     -0.056672058
6        6.176217574      0.137020484     -0.779462988
6       -6.222778310     -0.045276412     10.686389026
6       -7.457278486     -0.135030324      9.967310125
6       -7.460875284     -0.101860530      8.539495448
6       -4.983088557     -0.038840618     12.833718374
6       -6.218253986     -0.102467697     12.115625265
6       -4.977472317     -0.113732850     14.263362051
6       -3.742841849     -0.075400039     14.979884663
6       -3.735241283     -0.162452877     16.413665810
6       -2.504823369     -0.146950017     17.123293598
6       -0.019099791     -0.164235899     18.570433031
6       -1.274402446     -0.246546331     19.254726016
6       -2.493490669     -0.242878117     18.573013489
6        1.213548098     -0.195024294     19.254610658
6        2.457327482     -0.137405464     18.569780042
6        3.701600051     -0.197650586     19.253489957
6        4.933731548     -0.169349324     18.568261467
6        6.189458359     -0.254159181     19.251484445
6        7.408028943     -0.252492195     18.568823197
6        8.679950823     -0.354672667     19.256194138
6        9.868168927     -0.372141355     18.569434815
6        8.643575752     -0.143248414     -2.203317149
6       11.138557080     -0.185815078     -0.774998540
6       12.376909773     -0.162637594      1.367444668
6       13.614234833     -0.211530260      3.511652881
6       14.853665180     -0.311882163      5.652625756
6        6.170976015     -0.027764179     -2.207003161
6        3.691412205      0.035681707     -2.207834386
6        1.210580270      0.029743395     -2.206621513
6       -1.268529148     -0.045626236     -2.203364808
6       -3.748309043     -0.031506079     -0.766337661
6       -4.987939723      0.044643681      1.378138547
6       -6.225817253      0.018773128      3.525472338
6       -7.463332655     -0.078307226      5.673143561
6       -8.697524839     -0.212260055      7.816761493
6       -8.706069678     -0.270049374     10.693054161
6       -7.468420491     -0.235540739     12.838354410
6       -6.230294082     -0.238743563     14.983878242
6       -4.994839604     -0.276220145     17.129169434
6       -3.765011004     -0.343027754     19.261426740
1       -1.270832423     -0.324458127     20.355035302
1        1.214763209     -0.279090148     20.354280381
1        3.701199383     -0.281849619     20.353152538

1        1.214763209     -0.279090148     20.354280381
1        3.701199383     -0.281849619     20.353152538
1        6.186646659     -0.332654634     20.351756472
1        8.671379978     -0.424675801     20.356792012
1       10.824167446     -0.456744245     19.111284466
1       12.060292325     -0.417567792     16.952262938
1       13.301342005     -0.406263711     14.796726304
1       14.542722342     -0.422941365     12.641234347
1       15.783885116     -0.468449437     10.487458432
6       16.083705243     -0.443654729      7.782105392
6       16.083751456     -0.432669147      6.409658594
6       14.833073842     -0.318791672      4.256197970
6       13.589828982     -0.247637536      2.102660798
6       12.347023290     -0.235994871     -0.050741971
1       17.030636281     -0.542217896      8.338106807
1       17.030586186     -0.523477413      5.852147977
1       15.781620042     -0.419898961      3.703670317
1       14.538859894     -0.360065593      1.553556882
1       13.296866718     -0.353540129     -0.597195500
6       11.101625318     -0.295825860     -2.201891593
6        9.901975607     -0.282590268     -2.916265839
6        9.861046777     -0.418012398     -4.358710143
6        8.672591101     -0.431704543     -5.044746468
6        7.401742613     -0.309351843     -4.359158185
6        7.414185570     -0.155254114     -2.914365958
1       12.053987216     -0.407950524     -2.745552613
1       10.817289062     -0.519181012     -4.897246981
1        8.662652917     -0.544624489     -6.141629519
6        6.181877757     -0.346645871     -5.038285334
6        4.927143258     -0.241073180     -4.356377650
6        4.931749824     -0.072446589     -2.915511256
6        3.694170984     -0.305502714     -5.037457614
6        2.450531306     -0.220372157     -4.355541243
6        2.450843444     -0.045488931     -2.915837425
6        1.206650730     -0.312204709     -5.036263971
6       -0.025891585     -0.254037372     -4.353948329
6       -0.029880916     -0.084721675     -2.913099837
1        6.177202124     -0.471781740     -6.134073874
1        3.692627399     -0.437698566     -6.132213420
1        1.207846624     -0.445635640     -6.130866380
6       -2.511849777     -0.178648442     -2.909533443
6       -3.740543530     -0.170557588     -2.197336588
6       -1.280792539     -0.365981504     -5.034572014
6       -2.500113437     -0.333789139     -4.354242183
6       -3.771066751     -0.462220413     -5.038534362
6       -4.958906520     -0.452450064     -4.351387458
6       -4.999005540     -0.315547019     -2.909073451
1       -1.276656358     -0.490512545     -6.130422442
1       -3.761705987     -0.575907008     -6.135338366
1       -5.915239424     -0.558327566     -4.888855458
6       -4.982911640     -0.061142696     -0.049873376
6       -6.222499896     -0.035413965      2.096595954
6       -7.459133331     -0.093461087      4.245395545
6       -8.698516897     -0.203169596      6.396206402
6       -6.198009662     -0.331415586     -2.193726429
6       -6.234124858     -0.218770079     -0.767018874
6       -7.442050246     -0.269637452     -0.042047248
6       -7.471271528     -0.191872203      1.375958280
6       -8.683719099     -0.276742665      2.111825050
6       -8.707533216     -0.235532443      3.520700506
6       -9.925946773     -0.341901050      4.265987513
6       -9.945992551     -0.329499107      5.662366447
6       -9.925946773     -0.341901050      4.265987513
6       -9.945992551     -0.329499107      5.662366447
6      -11.175670633     -0.449023326      6.420245109
6      -11.175140944     -0.454585201      7.792708206
1       -7.150398952     -0.448255921     -2.736345207
1       -8.391908447     -0.391270909     -0.587578481
1       -9.632806069     -0.392520494      1.563520896
1      -10.874541950     -0.446438819      3.714189286
1      -12.122611694     -0.542631654      5.863384694
6       -9.944777923     -0.342928667      8.550792717
6       -4.953748790     -0.359195411     18.575553736
6       -6.194080224     -0.310358999     16.413779652
6       -7.438133555     -0.293978615     14.258000993
6       -8.681781804     -0.311774799     12.102445597
6       -9.924968829     -0.365651959      9.947177501
1      -12.121683064     -0.552620550      8.349466500
1      -10.874249227     -0.469090228     10.497970265
1       -9.632120643     -0.415818257     12.650940148
1       -8.389466180     -0.394217084     14.805496485
1       -7.147085788     -0.402838984     16.960057505
1       -5.909480698     -0.442198988     19.118121027
1       -3.755690217     -0.412274541     20.362065711
8        2.673803650      3.984717982      5.548736962
1        2.637266792      4.270105377      4.599352777
1        3.581941276      4.201015717      5.884909188

*

